lehigh.dss
clear 
set defaultbasefrequency=60

! around 3.5 mw of load
new object=circuit.lehigh basekv=115 pu=1.0001 phases=3 bus1=sourcebus angle=30 mvasc3=20000 mvasc1=21000 
edit object=vsource.source basekv=115 bus1=sourcebus.1.2.3 pu=1.00 r1=0 x1=0.0001 r0=0 x0=0.0001

!sub transformer definition 
new object=transformer.sub phases=3 windings=2 xhl=0.008 windings=2 buses=[sourcebus.1.2.3,650.1.2.3] conns=[delta,wye] kvs=[115,4.16] kvas=[5000,5000] %rs=[0.0005,0.0005]

! feeder 1-phase voltage regulators
! define low-impedance 2-wdg transformer

new object=transformer.reg1 phases=1 bank=reg1 xhl=0.01 kvas=[1666,1666] buses=[650.1,rg60.1] kvs=[2.4,2.4] %loadloss=0.01
new object=regcontrol.reg1 transformer=reg1 winding=2 vreg=122 band=2 ptratio=20 ctprim=700 r=3 x=9 

new object=transformer.reg2 phases=1 bank=reg1 xhl=0.01 kvas=[1666,1666] buses=[650.2,rg60.2] kvs=[2.4,2.4] %loadloss=0.01
new object=regcontrol.reg2 transformer=reg2 winding=2 vreg=122 band=2 ptratio=20 ctprim=700 r=3 x=9 

new object=transformer.reg3 phases=1 bank=reg1 xhl=0.01 kvas=[1666,1666] buses=[650.3,rg60.3] kvs=[2.4,2.4] %loadloss=0.01
new object=regcontrol.reg3 transformer=reg3 winding=2 vreg=122 band=2 ptratio=20 ctprim=700 r=3 x=9 

!transformer definition 
new object=transformer.xfm1 phases=3 windings=2 xhl=2 buses=[633.1.2.3,634.1.2.3] conns=[wye,wye] kvs=[4.16,0.480] kvas=[500,500] %rs=[0.55,0.55] xht=1 xlt=1

! these are local matrix line codes
new object=linecode.mtx601 nphases=3 basefreq=60 rmatrix=[0.3465|0.1560,0.3375|0.1580,0.1535,0.3414] xmatrix=[1.0179|0.5017,1.0478|0.4236,0.3849,1.0348] units=mi 
new object=linecode.mtx602 nphases=3 basefreq=60 rmatrix=[0.7526|0.1580,0.7475|0.1560,0.1535,0.7436] xmatrix=[1.1814|0.4236,1.1983|0.5017,0.3849,1.2112] units=mi 
new object=linecode.mtx603 nphases=2 basefreq=60 rmatrix=[1.3238|0.2066,1.3294] xmatrix=[1.3569|0.4591,1.3471] units=mi 
new object=linecode.mtx604 nphases=2 basefreq=60 rmatrix=[1.3238|0.2066,1.3294] xmatrix=[1.3569|0.4591,1.3471] units=mi 
new object=linecode.mtx605 nphases=1 basefreq=60 rmatrix=[1.3292] xmatrix=[1.3475] units=mi 
new object=linecode.mtx606 nphases=3 units=mi rmatrix=[0.791721|0.318476,0.781649|0.28345,0.318476,0.791721] xmatrix=[0.438352|0.0276838,0.396697|-0.0184204,0.0276838,0.438352] cmatrix=[383.948|0,383.948|0,0,383.948]
new object=linecode.mtx607 nphases=1 basefreq=60 rmatrix=[1.3425] xmatrix=[0.5124] cmatrix=[236] units=mi 

!loadshape definitions for microgrid m1 represent residential loads 
new object=loadshape.634a_loadcurve npts=8760 interval=1 useactual=no mult=[0.180749,0.165314,0.162028,0.160885,0.180544,0.222345,0.270552,0.246008,0.217675,0.192632,0.165173,0.16607,0.164704,0.160621,0.159219,0.171578,0.240129,0.336047,0.38776,0.378728,0.374884,0.327085,0.270388,0.223752,0.19609,0.195972,0.19843,0.200612,0.22312,0.268576,0.318971,0.292986,0.274214,0.235361,0.202456,0.208916,0.204456,0.192053,0.186293,0.198747,0.26727,0.338589,0.390309,0.38492,0.385708,0.339907,0.283046,0.237759,0.211212,0.212448,0.21574,0.218875,0.242179,0.288582,0.343026,0.309977,0.278731,0.240461,0.211469,0.22392,0.233972,0.241434,0.248237,0.268208,0.320489,0.348298,0.389475,0.384612,0.384155,0.338707,0.280462,0.228641,0.197174,0.194161,0.190279,0.189921,0.211881,0.252041,0.297316,0.270967,0.25851,0.226771,0.194577,0.192641,0.187275,0.187169,0.186327,0.19951,0.268185,0.335662,0.38407,0.375159,0.371114,0.32089,0.257137,0.202948,0.168891,0.163479,0.160774,0.159421,0.178509,0.22023,0.269118,0.246888,0.260313,0.318058,0.373431,0.339158,0.351959,0.375766,0.387728,0.390669,0.47337,0.48941,0.483081,0.457689,0.447755,0.389833,0.311772,0.243592,0.189855,0.182609,0.178189,0.170261,0.19013,0.236032,0.292968,0.28931,0.388736,0.408999,0.465303,0.505258,0.527334,0.539298,0.527163,0.513588,0.517666,0.518498,0.553244,0.530354,0.527973,0.395047,0.265194,0.203845,0.169236,0.163497,0.161118,0.160226,0.179703,0.22171,0.270702,0.246547,0.216571,0.192891,0.1982,0.227187,0.248436,0.23551,0.240678,0.288301,0.342291,0.380526,0.418577,0.40546,0.398884,0.344898,0.270789,0.207999,0.170194,0.16358,0.16078,0.159432,0.178512,0.220526,0.269688,0.249695,0.275637,0.351562,0.393033,0.409222,0.420656,0.45223,0.493663,0.505166,0.533655,0.534162,0.508814,0.44744,0.408362,0.341989,0.265065,0.205478,0.170747,0.168617,0.169568,0.171938,0.193489,0.237157,0.286853,0.262303,0.251545,0.247505,0.274371,0.342524,0.400528,0.440765,0.481295,0.44969,0.471206,0.467236,0.465195,0.421221,0.40284,0.347586,0.276904,0.217862,0.179576,0.173392,0.1674,0.164845,0.184657,0.227521,0.279358,0.268125,0.299702,0.331196,0.398241,0.437289,0.409615,0.407444,0.410153,0.395924,0.441166,0.483652,0.500144,0.47052,0.458673,0.386748,0.294377,0.224216,0.178917,0.16715,0.16163,0.159421,0.178771,0.220994,0.270022,0.24758,0.243862,0.219306,0.195954,0.223292,0.306842,0.414323,0.481481,0.498486,0.517453,0.497169,0.515576,0.452495,0.395922,0.334788,0.264034,0.205578,0.169137,0.164309,0.16291,0.163032,0.183044,0.225511,0.275608,0.257153,0.258969,0.239314,0.218864,0.219583,0.205245,0.201413,0.198575,0.209238,0.277357,0.340423,0.402467,0.395744,0.395199,0.350005,0.289637,0.241033,0.215209,0.217115,0.220498,0.223737,0.247099,0.292443,0.342032,0.317676,0.296855,0.246163,0.205692,0.201051,0.191107,0.187723,0.185683,0.197414,0.265364,0.32563,0.38407,0.375159,0.371114,0.320936,0.257316,0.203108,0.168926,0.163479,0.160774,0.159433,0.178688,0.220661,0.269245,0.244871,0.214911,0.231131,0.276473,0.328944,0.365434,0.368621,0.384331,0.391786,0.397519,0.435445,0.468557,0.450673,0.432849,0.366558,0.294751,0.235669,0.186735,0.174539,0.170141,0.165833,0.181371,0.222567,0.272083,0.257083,0.306806,0.408094,0.447157,0.468988,0.485332,0.498824,0.516229,0.538319,0.580989,0.597002,0.56377,0.506793,0.477395,0.41595,0.334087,0.248608,0.19097,0.175474,0.166251,0.162754,0.180197,0.221876,0.271402,0.250819,0.265307,0.332607,0.402027,0.466712,0.507241,0.529738,0.518019,0.522561,0.562266,0.57915,0.58152,0.545387,0.509653,0.429696,0.312562,0.225665,0.17873,0.169299,0.165163,0.161956,0.179834,0.221636,0.271378,0.251008,0.271844,0.304967,0.35293,0.427698,0.461611,0.477058,0.455173,0.407673,0.447919,0.468505,0.492694,0.464885,0.444395,0.381078,0.304403,0.239165,0.194763,0.181889,0.166664,0.160418,0.178835,0.221208,0.270377,0.249197,0.266135,0.321641,0.367323,0.398127,0.407343,0.454556,0.428898,0.422654,0.476335,0.502655,0.505707,0.466639,0.435882,0.369001,0.296316,0.234176,0.186641,0.172975,0.169003,0.166257,0.183859,0.226708,0.280871,0.256258,0.257977,0.303149,0.36249,0.463165,0.512786,0.529653,0.493317,0.465585,0.501367,0.525939,0.542542,0.512939,0.496939,0.429066,0.341724,0.26576,0.203514,0.184559,0.17481,0.167712,0.18474,0.225375,0.275128,0.258724,0.305131,0.408837,0.483274,0.492713,0.509408,0.523672,0.484126,0.474408,0.533712,0.536773,0.556857,0.526953,0.506023,0.446421,0.366147,0.290968,0.232816,0.213238,0.203483,0.196743,0.214115,0.259268,0.317342,0.312863,0.357662,0.404177,0.381373,0.389335,0.39539,0.297359,0.249178,0.272824,0.283777,0.367059,0.447545,0.456828,0.462353,0.41696,0.344589,0.269349,0.223198,0.211652,0.197856,0.191791,0.211452,0.265219,0.333241,0.32509,0.360578,0.421165,0.439194,0.460431,0.474825,0.497572,0.511062,0.513667,0.542446,0.544005,0.570478,0.548752,0.526986,0.457951,0.374884,0.294993,0.237277,0.221341,0.211544,0.204453,0.21524,0.254242,0.316521,0.321913,0.409234,0.503941,0.545125,0.565913,0.561181,0.56344,0.559263,0.578517,0.624348,0.60601,0.587191,0.540984,0.516967,0.452551,0.369512,0.295239,0.2346,0.199002,0.178042,0.170615,0.189496,0.230426,0.277477,0.270458,0.370745,0.471953,0.505349,0.525525,0.526773,0.560627,0.540947,0.494672,0.514199,0.537936,0.569799,0.532705,0.512859,0.447942,0.365837,0.293183,0.234226,0.220346,0.219689,0.215436,0.233827,0.261545,0.300513,0.285861,0.385772,0.478334,0.494788,0.533464,0.555085,0.568854,0.565231,0.561533,0.600797,0.57529,0.563498,0.511803,0.4798,0.406111,0.322852,0.255551,0.20879,0.197048,0.186373,0.175889,0.188895,0.229004,0.280373,0.276296,0.374108,0.448316,0.468644,0.514599,0.535908,0.550494,0.518835,0.504274,0.568113,0.564108,0.56988,0.536955,0.514115,0.444961,0.361899,0.288933,0.235058,0.219228,0.203272,0.192254,0.214071,0.26501,0.325141,0.319076,0.334253,0.358012,0.382195,0.430399,0.493531,0.535892,0.528151,0.489092,0.497671,0.50897,0.541608,0.505815,0.475175,0.392694,0.302519,0.231111,0.182682,0.174946,0.17345,0.170427,0.188911,0.23295,0.2952,0.267685,0.224497,0.220672,0.257923,0.358266,0.398987,0.442364,0.464215,0.452706,0.469137,0.473039,0.469367,0.412824,0.388807,0.330641,0.260478,0.203992,0.170392,0.167399,0.166969,0.167844,0.186961,0.228407,0.278409,0.254386,0.221918,0.206118,0.205258,0.23461,0.259095,0.274924,0.288917,0.310341,0.350924,0.385682,0.40673,0.384907,0.375952,0.323608,0.259903,0.208343,0.177121,0.173911,0.173085,0.173044,0.193476,0.236526,0.286874,0.262465,0.252292,0.247053,0.259016,0.292646,0.304135,0.347822,0.365667,0.361286,0.400287,0.403789,0.417761,0.389535,0.377993,0.323318,0.25826,0.205969,0.175312,0.174068,0.175397,0.178677,0.202924,0.248174,0.296386,0.256469,0.253651,0.245139,0.251623,0.286277,0.304483,0.321622,0.343864,0.360775,0.390752,0.383552,0.405332,0.381507,0.374484,0.322636,0.259177,0.206424,0.173699,0.169738,0.168565,0.168027,0.187015,0.227813,0.276973,0.244317,0.251622,0.281951,0.339107,0.374965,0.383027,0.397028,0.398948,0.410435,0.456373,0.440528,0.442795,0.408818,0.391647,0.334015,0.263383,0.206209,0.169675,0.163896,0.161883,0.160758,0.180255,0.22361,0.273899,0.240948,0.253156,0.273687,0.315837,0.348172,0.360277,0.370616,0.349874,0.33835,0.38151,0.411971,0.477011,0.447942,0.405932,0.329525,0.263139,0.209635,0.17253,0.166515,0.164443,0.163873,0.185112,0.228607,0.280513,0.249921,0.253514,0.27364,0.316575,0.402512,0.466978,0.489297,0.494324,0.462974,0.481291,0.496498,0.52303,0.48427,0.440165,0.348925,0.270869,0.208705,0.171509,0.16487,0.161234,0.159421,0.178509,0.22023,0.269134,0.235199,0.215229,0.189343,0.163788,0.164872,0.179589,0.201732,0.199519,0.210897,0.269122,0.333078,0.406113,0.387272,0.377991,0.323099,0.257204,0.203581,0.170483,0.166006,0.163771,0.16361,0.183195,0.223637,0.272194,0.236407,0.216054,0.208241,0.210074,0.233899,0.236322,0.211481,0.203656,0.219,0.27916,0.344622,0.410752,0.391741,0.380669,0.327042,0.259506,0.203263,0.168891,0.163479,0.160774,0.159421,0.178533,0.220267,0.269123,0.238158,0.252755,0.268076,0.293102,0.327641,0.336209,0.342208,0.338302,0.331847,0.373446,0.388484,0.448053,0.425513,0.416684,0.361221,0.291905,0.221972,0.174786,0.174022,0.169563,0.164762,0.188384,0.234883,0.290753,0.266711,0.314899,0.370603,0.415096,0.476963,0.519866,0.544978,0.53151,0.514508,0.558891,0.567103,0.589191,0.544607,0.523113,0.422876,0.308242,0.247442,0.201793,0.185269,0.17436,0.171611,0.191122,0.22974,0.276954,0.251256,0.287226,0.280339,0.293584,0.333376,0.344837,0.372498,0.401881,0.420034,0.479127,0.469078,0.459704,0.40539,0.386706,0.32807,0.259856,0.205037,0.173223,0.169569,0.168829,0.168868,0.18863,0.23168,0.281708,0.247408,0.252413,0.242261,0.234969,0.254467,0.270285,0.28662,0.301681,0.315942,0.377184,0.380191,0.408736,0.382571,0.374833,0.323616,0.261141,0.209977,0.180493,0.178868,0.180188,0.183224,0.205074,0.248542,0.297673,0.262851,0.258462,0.227584,0.215284,0.225449,0.230646,0.224932,0.228804,0.24376,0.292999,0.313336,0.386492,0.378966,0.378326,0.330812,0.268183,0.215029,0.182593,0.178713,0.178468,0.179318,0.200211,0.242895,0.291046,0.255615,0.23298,0.200046,0.168326,0.167757,0.164572,0.15908,0.158955,0.170365,0.238359,0.305055,0.386241,0.379048,0.378088,0.330762,0.270109,0.221235,0.191999,0.188319,0.186875,0.188001,0.213102,0.259953,0.309236,0.270747,0.238201,0.198233,0.182318,0.217484,0.242025,0.255602,0.274958,0.299824,0.347751,0.361829,0.400711,0.378484,0.371624,0.321122,0.258697,0.207134,0.175991,0.173389,0.17366,0.174078,0.195249,0.240315,0.289757,0.251012,0.250191,0.25008,0.273593,0.313156,0.325634,0.340814,0.351518,0.351549,0.409021,0.406438,0.424082,0.391775,0.38028,0.326744,0.26001,0.203654,0.168894,0.163505,0.160963,0.160181,0.180502,0.224307,0.273599,0.239373,0.275983,0.308445,0.321912,0.342245,0.35409,0.385367,0.396951,0.388131,0.444047,0.440452,0.460865,0.422917,0.406597,0.348618,0.275537,0.215097,0.174172,0.166482,0.163359,0.161184,0.178841,0.220454,0.269617,0.242407,0.285357,0.359682,0.409081,0.424077,0.378589,0.377275,0.415938,0.453138,0.518442,0.495093,0.505094,0.46083,0.433219,0.366062,0.285894,0.217654,0.174172,0.166234,0.162278,0.15996,0.178567,0.220513,0.269812,0.23934,0.284624,0.318347,0.365596,0.424058,0.430841,0.400085,0.397191,0.42208,0.482023,0.458456,0.484277,0.448355,0.422468,0.368902,0.302982,0.237094,0.191795,0.183137,0.177556,0.173609,0.192212,0.237168,0.283843,0.276487,0.305933,0.351434,0.398601,0.434888,0.422633,0.405829,0.388822,0.391397,0.483729,0.501525,0.507759,0.471714,0.454607,0.396423,0.318997,0.24934,0.20242,0.192331,0.192155,0.188454,0.203448,0.247939,0.294662,0.307322,0.36833,0.419044,0.447208,0.45558,0.459032,0.501971,0.504884,0.458903,0.48999,0.540334,0.568349,0.536419,0.515712,0.447965,0.365398,0.298323,0.249313,0.235604,0.228692,0.224879,0.24348,0.291105,0.339677,0.360795,0.409531,0.416906,0.46229,0.50592,0.499502,0.499909,0.547406,0.570685,0.573353,0.583854,0.621035,0.586035,0.558488,0.487478,0.402894,0.330231,0.271081,0.256281,0.245081,0.238375,0.25371,0.293674,0.343405,0.36237,0.418775,0.463654,0.487331,0.501588,0.505772,0.518105,0.525955,0.536593,0.543453,0.551989,0.598044,0.585864,0.56273,0.492519,0.410099,0.337155,0.284396,0.266717,0.247957,0.232286,0.238328,0.276768,0.338618,0.343571,0.367822,0.363466,0.495105,0.52885,0.527908,0.543356,0.552086,0.556419,0.609983,0.598118,0.607493,0.571397,0.547834,0.487289,0.407519,0.325694,0.272213,0.26355,0.248303,0.233077,0.246389,0.291232,0.34135,0.354614,0.442311,0.485544,0.516073,0.561048,0.573473,0.601554,0.59802,0.614239,0.654944,0.623469,0.61677,0.569631,0.54423,0.47291,0.383407,0.311618,0.269008,0.260524,0.251979,0.24622,0.263383,0.309721,0.359573,0.378865,0.478687,0.5412,0.57379,0.607023,0.61486,0.59585,0.530172,0.539277,0.570928,0.559211,0.596485,0.574159,0.554298,0.478834,0.369368,0.288565,0.233742,0.208361,0.20795,0.211627,0.23292,0.285692,0.337319,0.354832,0.450787,0.484176,0.523422,0.582596,0.600296,0.591102,0.592448,0.605682,0.658038,0.647831,0.625032,0.566731,0.548371,0.481892,0.389485,0.31424,0.26307,0.255113,0.244685,0.24085,0.267529,0.317318,0.377927,0.386766,0.408332,0.421128,0.445737,0.53683,0.590889,0.608423,0.470397,0.34713,0.429253,0.44734,0.484485,0.453133,0.412339,0.33921,0.263014,0.203629,0.171096,0.168359,0.167636,0.167835,0.188654,0.233482,0.275266,0.246685,0.222646,0.203708,0.19308,0.213533,0.240659,0.266121,0.294364,0.317711,0.380136,0.413895,0.419171,0.388845,0.377827,0.324401,0.258651,0.203857,0.171875,0.168993,0.168648,0.168942,0.188889,0.231114,0.27009,0.243309,0.249607,0.270388,0.302157,0.342719,0.372568,0.409303,0.409247,0.399633,0.406589,0.413402,0.476813,0.470278,0.461746,0.403929,0.323645,0.262929,0.213344,0.194124,0.186139,0.177076,0.190252,0.234155,0.274169,0.319445,0.433975,0.487478,0.51778,0.543376,0.546239,0.557887,0.556206,0.576565,0.626237,0.612287,0.599921,0.523281,0.470351,0.384304,0.291527,0.220341,0.174915,0.165717,0.16116,0.160634,0.181688,0.225474,0.256243,0.242254,0.268516,0.284055,0.294493,0.33867,0.365899,0.388224,0.419137,0.440158,0.501986,0.498027,0.488115,0.436839,0.408608,0.33935,0.262897,0.205909,0.170081,0.165001,0.164332,0.164058,0.184365,0.22652,0.255334,0.241023,0.290516,0.345253,0.356019,0.377168,0.386403,0.413584,0.428728,0.392348,0.446368,0.440593,0.465929,0.439219,0.420648,0.358108,0.283959,0.221174,0.179337,0.170582,0.165583,0.163214,0.183015,0.227753,0.261919,0.276442,0.349319,0.391301,0.408903,0.459182,0.472913,0.501656,0.519324,0.513136,0.533927,0.529343,0.564087,0.533225,0.514316,0.453628,0.371991,0.298765,0.248384,0.235092,0.21989,0.207667,0.223655,0.269419,0.311375,0.344413,0.401671,0.43123,0.48601,0.558298,0.553093,0.56344,0.564134,0.564997,0.583954,0.593735,0.601541,0.572427,0.548594,0.478952,0.393862,0.319208,0.260103,0.23874,0.231635,0.234117,0.258829,0.299747,0.334371,0.349522,0.365631,0.398536,0.440874,0.557904,0.569705,0.554077,0.545413,0.517835,0.570447,0.59441,0.602569,0.576467,0.554622,0.483498,0.393118,0.312831,0.248948,0.236547,0.232306,0.21248,0.22841,0.282423,0.325506,0.340748,0.388021,0.413142,0.419966,0.375846,0.33374,0.425351,0.426136,0.439264,0.505834,0.502047,0.521463,0.505429,0.491791,0.428343,0.342155,0.263981,0.204727,0.190311,0.181366,0.173754,0.189689,0.230592,0.264202,0.26471,0.283305,0.284214,0.309384,0.3439,0.375787,0.399862,0.438073,0.445429,0.488512,0.496817,0.522335,0.508825,0.495699,0.429371,0.342431,0.262805,0.207435,0.194812,0.184,0.177688,0.195554,0.239853,0.277132,0.307068,0.359207,0.39554,0.40772,0.442561,0.440446,0.451209,0.486648,0.499212,0.521909,0.516691,0.528659,0.506684,0.490744,0.42171,0.333864,0.262216,0.213202,0.203728,0.200258,0.203014,0.227205,0.274638,0.31575,0.331443,0.403606,0.448833,0.452147,0.441728,0.462144,0.527375,0.559992,0.592854,0.639931,0.621501,0.606537,0.568962,0.548552,0.477619,0.385391,0.31208,0.262828,0.256206,0.246182,0.232954,0.248917,0.296076,0.339114,0.357248,0.368779,0.312511,0.271612,0.292413,0.227235,0.217203,0.329629,0.375222,0.432973,0.408582,0.416572,0.400754,0.386855,0.328355,0.25966,0.203075,0.169664,0.166,0.165378,0.165587,0.18609,0.228626,0.248239,0.241667,0.219205,0.199076,0.189749,0.20035,0.231677,0.268567,0.301018,0.329059,0.384264,0.42297,0.444218,0.433509,0.423234,0.367072,0.287906,0.221475,0.176831,0.171894,0.167302,0.185357,0.226656,0.273283,0.266526,0.234428,0.231243,0.247974,0.312668,0.339958,0.360982,0.398277,0.437439,0.509673,0.57666,0.554928,0.505962,0.479599,0.413068,0.324232,0.246662,0.19992,0.193712,0.186938,0.179032,0.197921,0.243409,0.303544,0.305863,0.336885,0.39079,0.411678,0.480585,0.558991,0.589783,0.602737,0.634394,0.749372,0.77105,0.720688,0.669818,0.627971,0.547861,0.455186,0.375823,0.313949,0.288741,0.27643,0.268065,0.283382,0.322823,0.373283,0.374786,0.376648,0.396365,0.501171,0.546036,0.440376,0.394355,0.405289,0.478482,0.586844,0.604013,0.559424,0.504126,0.459905,0.375419,0.277546,0.205808,0.169155,0.165741,0.165853,0.166969,0.187715,0.23029,0.280268,0.279711,0.252813,0.226384,0.200604,0.208075,0.210043,0.214432,0.221774,0.242891,0.321966,0.35637,0.359473,0.364011,0.372452,0.323106,0.261939,0.212304,0.184297,0.185798,0.190698,0.195314,0.217501,0.262917,0.314623,0.312188,0.275031,0.237963,0.203007,0.20326,0.204616,0.21194,0.225429,0.243724,0.315837,0.342773,0.348653,0.361068,0.37133,0.32126,0.258598,0.20566,0.173423,0.169485,0.168409,0.168442,0.188236,0.232428,0.283048,0.280082,0.250417,0.223761,0.205207,0.234958,0.265676,0.272596,0.297696,0.326444,0.373116,0.391167,0.396459,0.384889,0.380086,0.326421,0.259689,0.203597,0.168891,0.163479,0.160774,0.159425,0.178567,0.220248,0.269118,0.264859,0.219621,0.222856,0.20946,0.219384,0.243459,0.261394,0.273483,0.308166,0.425338,0.520188,0.512518,0.512094,0.49888,0.432257,0.353853,0.284538,0.232707,0.218908,0.210233,0.205129,0.235048,0.293706,0.357872,0.35951,0.258834,0.197849,0.167424,0.167687,0.162032,0.158917,0.159089,0.171147,0.238623,0.315498,0.339151,0.359833,0.371384,0.321856,0.259753,0.207298,0.175269,0.171852,0.172183,0.173237,0.194522,0.237903,0.289396,0.279779,0.258458,0.228959,0.198573,0.198078,0.203988,0.209549,0.212682,0.226917,0.30628,0.339195,0.345805,0.359737,0.37139,0.321004,0.258763,0.207064,0.176269,0.174636,0.175545,0.17748,0.197956,0.240438,0.291825,0.280802,0.258277,0.227008,0.201317,0.21994,0.244754,0.267213,0.284977,0.322628,0.399939,0.441407,0.43208,0.401012,0.383417,0.324004,0.25754,0.202933,0.168987,0.164942,0.163982,0.164485,0.186117,0.229021,0.278671,0.266383,0.247928,0.221025,0.218093,0.256656,0.271049,0.310176,0.313032,0.355351,0.439226,0.480372,0.450188,0.432475,0.418062,0.348307,0.272787,0.212047,0.173939,0.166489,0.162678,0.161375,0.18087,0.223002,0.276416,0.269782,0.274835,0.28771,0.304956,0.35973,0.366787,0.384471,0.414052,0.443446,0.522951,0.537845,0.519532,0.505607,0.488961,0.422638,0.342571,0.272259,0.217864,0.198612,0.191009,0.185307,0.199414,0.24122,0.299175,0.296109,0.329069,0.35683,0.372069,0.444004,0.487749,0.493355,0.48992,0.473589,0.536452,0.570438,0.547193,0.531093,0.515273,0.443726,0.356589,0.283103,0.2257,0.204495,0.195223,0.188685,0.202787,0.244383,0.29885,0.295376,0.297028,0.331015,0.363026,0.412718,0.445668,0.462799,0.477298,0.533338,0.605631,0.643934,0.617416,0.565567,0.54732,0.476717,0.39275,0.317135,0.265309,0.251421,0.235079,0.221138,0.233992,0.270481,0.319976,0.318297,0.329483,0.359431,0.402479,0.450639,0.463278,0.499326,0.560681,0.599639,0.601277,0.606813,0.595189,0.562499,0.549591,0.481159,0.390979,0.299134,0.237115,0.213135,0.199578,0.191979,0.204259,0.241525,0.289981,0.28075,0.308757,0.373315,0.452764,0.547487,0.539965,0.573803,0.599465,0.636655,0.723859,0.733056,0.671565,0.620478,0.596514,0.524306,0.441709,0.352102,0.279927,0.251743,0.23199,0.217346,0.232096,0.26328,0.305077,0.292253,0.329176,0.376223,0.428272,0.492435,0.531263,0.531051,0.550508,0.579179,0.633991,0.658849,0.643993,0.586399,0.563891,0.499941,0.412086,0.32208,0.262308,0.243962,0.225871,0.212587,0.228555,0.271589,0.32093,0.320185,0.367154,0.390581,0.426815,0.455799,0.468901,0.481422,0.53017,0.573604,0.619009,0.629239,0.616587,0.577288,0.556554,0.486225,0.4025,0.321192,0.261752,0.244591,0.228743,0.215076,0.229709,0.273683,0.331905,0.325171,0.36696,0.398578,0.4393,0.496665,0.531488,0.528737,0.555612,0.558781,0.637743,0.641993,0.615883,0.569004,0.54952,0.484059,0.40113,0.320597,0.261831,0.243965,0.226868,0.215741,0.233008,0.269654,0.320062,0.312298,0.358098,0.388939,0.419212,0.451996,0.465242,0.465296,0.46991,0.50162,0.598881,0.604418,0.561381,0.526867,0.517318,0.450473,0.362296,0.287631,0.237325,0.221583,0.208269,0.195255,0.207143,0.248302,0.30043,0.286947,0.31146,0.389805,0.463414,0.544101,0.589132,0.620292,0.64744,0.685438,0.775898,0.830484,0.803526,0.734307,0.690472,0.59339,0.491791,0.412999,0.352443,0.325303,0.308096,0.301958,0.318923,0.365614,0.423747,0.405533,0.407449,0.463938,0.502153,0.559578,0.612134,0.631911,0.660431,0.692119,0.745053,0.799677,0.776046,0.72108,0.682623,0.592517,0.493389,0.412742,0.359759,0.344714,0.332602,0.320746,0.321095,0.355796,0.412661,0.398744,0.441335,0.491228,0.540773,0.611079,0.632569,0.64391,0.680674,0.719563,0.783487,0.802774,0.776242,0.72537,0.694525,0.618299,0.517267,0.431068,0.379537,0.36755,0.33808,0.316198,0.330327,0.375464,0.429608,0.40261,0.455396,0.495876,0.502528,0.575011,0.625381,0.631655,0.66388,0.663997,0.754276,0.811825,0.788336,0.725067,0.680669,0.605617,0.510681,0.426242,0.372256,0.357699,0.345086,0.335152,0.344676,0.388389,0.453455,0.433757,0.452542,0.466269,0.479907,0.53413,0.582245,0.591822,0.577134,0.546531,0.613909,0.658666,0.652427,0.611976,0.601913,0.532909,0.449077,0.363041,0.279464,0.227403,0.204831,0.18183,0.184805,0.223343,0.271466,0.247065,0.243916,0.231259,0.226574,0.243506,0.250452,0.265778,0.27989,0.323943,0.418002,0.454097,0.43929,0.405332,0.395716,0.332692,0.260963,0.20384,0.168938,0.164207,0.162491,0.162383,0.182786,0.225543,0.275249,0.252362,0.24672,0.225692,0.234553,0.283299,0.310038,0.307323,0.337401,0.366395,0.443476,0.486751,0.469641,0.442518,0.433837,0.371997,0.29396,0.227497,0.181389,0.168318,0.162735,0.160939,0.179674,0.221793,0.273297,0.24088,0.254561,0.306968,0.35176,0.405865,0.445306,0.467793,0.491665,0.516316,0.59659,0.657455,0.635238,0.579251,0.538789,0.456143,0.360278,0.267219,0.193365,0.171902,0.164317,0.161003,0.179158,0.220604,0.26986,0.240693,0.257794,0.294032,0.35617,0.459176,0.522653,0.551062,0.52222,0.555368,0.650005,0.71816,0.696055,0.62938,0.570433,0.446029,0.314446,0.218786,0.171785,0.163582,0.161279,0.162356,0.183856,0.227124,0.276812,0.244571,0.247513,0.229971,0.257569,0.353986,0.395822,0.448218,0.47296,0.49076,0.534165,0.536605,0.512996,0.490891,0.488919,0.421379,0.341068,0.265144,0.21206,0.198311,0.190394,0.185357,0.20405,0.249841,0.306654,0.286479,0.324699,0.366947,0.399316,0.448939,0.464407,0.470469,0.468226,0.469154,0.534355,0.574009,0.580093,0.576007,0.574161,0.504354,0.420518,0.347542,0.297539,0.284076,0.266854,0.253163,0.270824,0.31804,0.376584,0.353859,0.382481,0.398642,0.448949,0.498167,0.503342,0.512415,0.533513,0.564828,0.633033,0.653978,0.642501,0.623882,0.62023,0.55055,0.460753,0.388781,0.334519,0.307374,0.290798,0.285544,0.302925,0.347622,0.407787,0.387516,0.431646,0.47624,0.523029,0.579506,0.597925,0.614482,0.633877,0.658201,0.737569,0.754042,0.729392,0.680197,0.643403,0.559832,0.469155,0.383829,0.322497,0.308558,0.30109,0.28556,0.295127,0.340275,0.39902,0.388629,0.456124,0.492478,0.534499,0.586898,0.605383,0.605435,0.625512,0.66186,0.741595,0.766492,0.744982,0.690586,0.648691,0.570604,0.482732,0.398694,0.330868,0.308701,0.292731,0.277933,0.289647,0.333259,0.391032,0.37183,0.396465,0.455228,0.503668,0.547213,0.582144,0.59684,0.639661,0.674692,0.746805,0.810733,0.777019,0.713863,0.674429,0.589296,0.487713,0.396548,0.335616,0.302242,0.270134,0.252068,0.265345,0.301504,0.3513,0.33075,0.372706,0.451005,0.538292,0.58864,0.626201,0.455035,0.307542,0.354394,0.558378,0.64803,0.637307,0.614404,0.619265,0.552762,0.456491,0.360388,0.29232,0.252062,0.223858,0.2092,0.217371,0.252773,0.302753,0.272246,0.306313,0.350999,0.436723,0.533438,0.588342,0.637564,0.660931,0.545601,0.471449,0.46258,0.481258,0.507696,0.516008,0.446463,0.364429,0.29147,0.240205,0.226205,0.21072,0.198204,0.21391,0.25317,0.294111,0.281165,0.314898,0.33118,0.392603,0.464832,0.48561,0.493708,0.511946,0.54165,0.612914,0.643558,0.616139,0.562385,0.546092,0.472567,0.38961,0.311044,0.249834,0.228351,0.217275,0.20566,0.217978,0.262722,0.311018,0.313083,0.350883,0.357702,0.387258,0.437212,0.453485,0.456285,0.466836,0.501647,0.574125,0.5967,0.59076,0.547712,0.528097,0.448948,0.361014,0.283702,0.228969,0.199547,0.17564,0.166123,0.183352,0.224885,0.26614,0.256988,0.286806,0.314168,0.390975,0.462446,0.475197,0.464613,0.47987,0.507663,0.58054,0.618643,0.609345,0.557948,0.542349,0.466492,0.385718,0.317514,0.269538,0.255613,0.241215,0.229851,0.248228,0.289258,0.332896,0.338217,0.379239,0.387288,0.418631,0.471263,0.49414,0.467458,0.474686,0.510613,0.567428,0.575816,0.573378,0.517433,0.499057,0.451715,0.372358,0.294489,0.238049,0.219853,0.202062,0.196996,0.221055,0.259951,0.301993,0.32043,0.346198,0.37908,0.39869,0.465876,0.496901,0.500651,0.518512,0.543183,0.621874,0.669197,0.681488,0.644558,0.627085,0.55022,0.463278,0.382246,0.321683,0.306347,0.297381,0.288274,0.303446,0.33919,0.383095,0.392649,0.423145,0.44092,0.490602,0.548939,0.570846,0.571903,0.583242,0.5966,0.628592,0.680701,0.648503,0.582373,0.581652,0.515883,0.431839,0.350774,0.292356,0.276769,0.257764,0.236494,0.246371,0.282796,0.319489,0.314978,0.366322,0.401339,0.469865,0.543118,0.593667,0.642891,0.675457,0.66859,0.706524,0.653368,0.603456,0.611535,0.618041,0.527967,0.423354,0.335435,0.251331,0.202603,0.17876,0.168071,0.18395,0.224311,0.264127,0.269738,0.348364,0.37269,0.397284,0.444505,0.459044,0.460665,0.478338,0.493288,0.548627,0.562936,0.562485,0.52504,0.509567,0.422984,0.332185,0.26045,0.207222,0.190592,0.179951,0.174107,0.191754,0.231244,0.276398,0.266291,0.288283,0.314022,0.348131,0.364267,0.376823,0.399871,0.431546,0.448614,0.515462,0.542526,0.546804,0.514537,0.503267,0.427292,0.342303,0.272576,0.224662,0.2127,0.190839,0.175306,0.189412,0.225665,0.261769,0.244274,0.287614,0.333993,0.357761,0.390988,0.423506,0.442709,0.459075,0.471599,0.538746,0.565183,0.555466,0.516548,0.514769,0.452292,0.373262,0.303311,0.246997,0.220178,0.20616,0.200052,0.213869,0.258235,0.300746,0.301938,0.363958,0.359191,0.392253,0.434501,0.437431,0.444179,0.46638,0.492222,0.555696,0.5843,0.589209,0.55296,0.553246,0.489513,0.404779,0.331039,0.274292,0.252591,0.241157,0.228013,0.229425,0.265347,0.312371,0.309574,0.313864,0.344445,0.369603,0.407244,0.434252,0.441301,0.450491,0.473176,0.545722,0.605726,0.608132,0.55469,0.53179,0.450738,0.357267,0.274637,0.218261,0.202935,0.193977,0.17907,0.184443,0.221219,0.249496,0.23559,0.242982,0.289174,0.328536,0.373676,0.40084,0.412852,0.427238,0.455518,0.538462,0.608187,0.597777,0.542626,0.52327,0.443356,0.347201,0.263507,0.205901,0.189837,0.181422,0.17253,0.185849,0.226514,0.257222,0.251547,0.300403,0.3341,0.373133,0.434301,0.474878,0.481049,0.510206,0.564067,0.596843,0.593752,0.586859,0.576924,0.564742,0.44858,0.341818,0.297325,0.241036,0.222988,0.217132,0.190871,0.194764,0.246351,0.268891,0.280561,0.263459,0.217281,0.190483,0.212156,0.33232,0.378018,0.388214,0.33085,0.34047,0.412445,0.478572,0.470869,0.486174,0.427613,0.348514,0.279932,0.231658,0.219684,0.213228,0.20721,0.221008,0.266934,0.311339,0.319811,0.394315,0.40348,0.462216,0.53286,0.54493,0.541375,0.572539,0.594145,0.654685,0.686486,0.671459,0.60533,0.57511,0.49873,0.417431,0.346755,0.291582,0.276634,0.266985,0.258317,0.270505,0.292749,0.315143,0.343935,0.438012,0.486853,0.525448,0.604936,0.655623,0.658964,0.661834,0.660803,0.670934,0.635256,0.602753,0.620293,0.620455,0.522889,0.410045,0.314461,0.242394,0.21025,0.195214,0.185272,0.199562,0.240453,0.274385,0.284305,0.328174,0.362884,0.414537,0.488301,0.527156,0.549491,0.578326,0.623615,0.710653,0.746623,0.7228,0.627541,0.571271,0.472488,0.370553,0.283936,0.220757,0.197431,0.178995,0.166677,0.182647,0.223878,0.255083,0.259972,0.277024,0.302914,0.344406,0.397909,0.437174,0.457982,0.49364,0.524127,0.605544,0.684557,0.698663,0.636512,0.639297,0.555709,0.41901,0.30997,0.241886,0.209391,0.186467,0.177209,0.190477,0.228057,0.258759,0.279568,0.305821,0.341045,0.375563,0.435462,0.460719,0.479267,0.5193,0.574806,0.651348,0.723413,0.737328,0.654367,0.623791,0.536779,0.428837,0.33139,0.260553,0.236913,0.216757,0.19569,0.204219,0.241047,0.275244,0.308395,0.40278,0.447548,0.469248,0.537266,0.568057,0.582276,0.621034,0.662221,0.741487,0.793004,0.781777,0.726491,0.702012,0.59646,0.486474,0.389889,0.321773,0.302266,0.286984,0.278245,0.289872,0.342151,0.390488,0.413853,0.513228,0.585512,0.632176,0.66026,0.695677,0.704082,0.693488,0.683092,0.672086,0.564892,0.516591,0.503831,0.534154,0.482741,0.384724,0.295596,0.245608,0.233988,0.232878,0.219182,0.217996,0.246688,0.271999,0.302254,0.351341,0.364373,0.425545,0.537019,0.565248,0.572542,0.601576,0.636487,0.715065,0.743866,0.725882,0.652197,0.592983,0.516189,0.438566,0.356927,0.314105,0.296321,0.279272,0.261768,0.269953,0.298921,0.313842,0.358906,0.46498,0.489406,0.493172,0.540671,0.579071,0.582498,0.585362,0.619293,0.691316,0.737941,0.729377,0.65036,0.606907,0.523615,0.447962,0.372107,0.32179,0.312956,0.293492,0.273102,0.278872,0.317353,0.351989,0.38818,0.462309,0.474153,0.498783,0.575249,0.570305,0.555165,0.590861,0.641392,0.701909,0.725414,0.73339,0.668017,0.633928,0.55174,0.456362,0.371818,0.312049,0.292982,0.273803,0.247932,0.246005,0.276843,0.312725,0.38341,0.455735,0.498407,0.518734,0.55205,0.567832,0.580009,0.597871,0.652341,0.729294,0.793253,0.769328,0.708213,0.696412,0.616268,0.519953,0.442585,0.383019,0.36137,0.348629,0.338895,0.353569,0.389863,0.4173,0.456121,0.463921,0.514014,0.532765,0.598103,0.638666,0.647492,0.649542,0.676405,0.733499,0.770136,0.786821,0.744234,0.719338,0.639774,0.549583,0.468538,0.409272,0.391581,0.374446,0.346581,0.354376,0.400162,0.434333,0.486289,0.524817,0.581949,0.621259,0.65906,0.671853,0.682527,0.706908,0.73296,0.823058,0.874713,0.873568,0.780141,0.743044,0.658007,0.561367,0.484021,0.425714,0.40327,0.394105,0.386676,0.403528,0.448281,0.481966,0.528739,0.578633,0.610898,0.637427,0.662035,0.667519,0.666701,0.69939,0.738173,0.802307,0.840255,0.837461,0.750552,0.716107,0.639839,0.551225,0.471087,0.412316,0.393493,0.379245,0.370733,0.387446,0.433881,0.471482,0.505185,0.582876,0.613362,0.635506,0.662443,0.647747,0.662811,0.678685,0.693184,0.774445,0.802008,0.769735,0.705251,0.700536,0.621776,0.537616,0.465765,0.416309,0.402786,0.388857,0.365907,0.365065,0.40407,0.44185,0.513422,0.585636,0.617415,0.623603,0.642959,0.655831,0.660972,0.701553,0.728104,0.784259,0.843527,0.823615,0.749962,0.73141,0.644454,0.551326,0.4726,0.409289,0.382261,0.370426,0.354422,0.363265,0.398584,0.426078,0.514921,0.602349,0.626194,0.655494,0.66967,0.666973,0.691214,0.722421,0.760192,0.834683,0.863776,0.858908,0.766456,0.742383,0.664295,0.566444,0.480241,0.422095,0.404205,0.395226,0.375836,0.383925,0.432789,0.46825,0.509364,0.541983,0.510342,0.489401,0.632963,0.657933,0.691872,0.718388,0.630936,0.581476,0.615441,0.646054,0.65284,0.673792,0.613185,0.528609,0.453342,0.40183,0.39176,0.373294,0.355471,0.355137,0.39362,0.443373,0.464784,0.488241,0.577517,0.639213,0.672788,0.677783,0.546651,0.5201,0.483602,0.421726,0.504294,0.549299,0.536778,0.568237,0.509893,0.449972,0.407265,0.359003,0.33899,0.32575,0.323857,0.35158,0.395684,0.431441,0.474319,0.483376,0.586161,0.631899,0.669395,0.556827,0.538368,0.678353,0.686417,0.654198,0.551437,0.50956,0.501527,0.538022,0.485693,0.399052,0.325743,0.281518,0.265859,0.264004,0.264053,0.281372,0.330002,0.352015,0.469166,0.618911,0.57812,0.581348,0.654572,0.707168,0.700893,0.572205,0.491475,0.496606,0.478085,0.552297,0.603906,0.612338,0.555685,0.478039,0.405555,0.353317,0.309965,0.264471,0.234036,0.235436,0.279138,0.316459,0.41007,0.534632,0.607762,0.646239,0.694766,0.70923,0.72857,0.77129,0.831551,0.699117,0.541071,0.585502,0.55375,0.577274,0.506815,0.417917,0.340146,0.282672,0.265361,0.255784,0.248557,0.256829,0.287672,0.308306,0.406752,0.552244,0.62747,0.635341,0.539239,0.328612,0.216705,0.254221,0.313495,0.353577,0.454332,0.587447,0.556334,0.578736,0.517489,0.381118,0.243199,0.186765,0.169021,0.163447,0.161658,0.18057,0.225039,0.250828,0.249428,0.249907,0.22821,0.277939,0.388104,0.429899,0.487957,0.474749,0.424401,0.527721,0.567607,0.560615,0.502355,0.515075,0.445488,0.364892,0.292421,0.236031,0.202925,0.180758,0.171465,0.188599,0.230367,0.257071,0.303412,0.370416,0.448559,0.489208,0.521972,0.556409,0.564316,0.578561,0.606506,0.691831,0.760892,0.768684,0.691454,0.67463,0.595719,0.503906,0.460173,0.382499,0.330219,0.328547,0.304956,0.29676,0.344379,0.381369,0.424152,0.452187,0.480003,0.500898,0.531826,0.538171,0.550267,0.574989,0.594676,0.692472,0.761773,0.747868,0.653563,0.643241,0.571289,0.485311,0.407788,0.349789,0.313883,0.284856,0.271072,0.277161,0.315103,0.345812,0.394205,0.454183,0.480567,0.484262,0.513906,0.538444,0.528403,0.537008,0.57377,0.652099,0.717791,0.702128,0.660658,0.658272,0.576519,0.490072,0.417296,0.373601,0.349625,0.329279,0.31143,0.319094,0.362253,0.404821,0.473288,0.55453,0.558514,0.581173,0.613474,0.617084,0.60047,0.606695,0.611474,0.675786,0.701763,0.673265,0.623117,0.637834,0.560586,0.475176,0.403748,0.34925,0.33434,0.326991,0.31727,0.332668,0.378773,0.416048,0.459943,0.514087,0.554614,0.565889,0.575725,0.594187,0.608827,0.613489,0.63615,0.718977,0.766348,0.741262,0.675187,0.684185,0.597059,0.503734,0.425709,0.37007,0.347943,0.330585,0.319686,0.333126,0.375482,0.404873,0.426531,0.496989,0.546713,0.560533,0.556652,0.483765,0.441028,0.555028,0.596834,0.676631,0.722912,0.713581,0.648561,0.657153,0.581071,0.495996,0.413351,0.355443,0.332049,0.314517,0.295583,0.302025,0.34314,0.373193,0.400208,0.462784,0.489516,0.488903,0.505719,0.516055,0.517092,0.528943,0.566683,0.660444,0.690617,0.688346,0.625216,0.621773,0.536841,0.449889,0.376245,0.323615,0.300309,0.275629,0.267864,0.283026,0.320942,0.353672,0.410332,0.441854,0.458115,0.450389,0.469746,0.499534,0.523969,0.537663,0.551694,0.637213,0.722536,0.742799,0.66513,0.650904,0.57096,0.483846,0.407224,0.353777,0.328746,0.310314,0.304107,0.322639,0.369525,0.404942,0.426241,0.437299,0.473519,0.496245,0.511832,0.522689,0.539522,0.577358,0.597114,0.644907,0.652347,0.616283,0.587669,0.623635,0.562408,0.471214,0.387939,0.34647,0.333057,0.322943,0.315429,0.322059,0.363193,0.411764,0.450349,0.534352,0.553168,0.583491,0.530195,0.403559,0.371117,0.390258,0.41804,0.44508,0.50902,0.522342,0.540317,0.56154,0.469028,0.377501,0.308876,0.270464,0.258687,0.248981,0.24334,0.262027,0.311614,0.34775,0.373493,0.450602,0.49346,0.524483,0.576324,0.61265,0.639644,0.674126,0.730991,0.836211,0.894817,0.887152,0.815067,0.789989,0.656495,0.513353,0.402029,0.324511,0.299546,0.281943,0.260322,0.266598,0.308893,0.34158,0.390685,0.486199,0.540401,0.582338,0.623555,0.650299,0.666585,0.687229,0.706933,0.779395,0.809882,0.813843,0.739081,0.731417,0.640813,0.530773,0.424774,0.335634,0.30349,0.285192,0.268383,0.274046,0.295793,0.312941,0.361934,0.458034,0.514406,0.552103,0.590975,0.60308,0.62239,0.670234,0.72764,0.835682,0.87602,0.816796,0.725975,0.723967,0.643241,0.549954,0.456765,0.386748,0.360309,0.336348,0.303732,0.294933,0.323594,0.346491,0.387087,0.466944,0.549476,0.623058,0.654685,0.670991,0.671114,0.681902,0.731143,0.835961,0.876678,0.861854,0.79055,0.778025,0.685941,0.566917,0.459525,0.37734,0.33537,0.305521,0.286049,0.298591,0.341489,0.357334,0.404895,0.471578,0.515923,0.57827,0.640134,0.686604,0.71088,0.692289,0.635114,0.565709,0.578015,0.664153,0.616609,0.631755,0.563712,0.481504,0.406743,0.346377,0.297701,0.255239,0.234029,0.247091,0.29301,0.325194,0.332624,0.360442,0.383072,0.416464,0.491184,0.539354,0.551728,0.537378,0.602354,0.741888,0.824067,0.832023,0.745682,0.702089,0.612927,0.510335,0.403897,0.333915,0.2968,0.275429,0.267097,0.284625,0.331374,0.365494,0.422054,0.552995,0.628715,0.668489,0.697967,0.582857,0.518972,0.629041,0.742842,0.733587,0.684363,0.773964,0.723569,0.740213,0.666636,0.523586,0.390524,0.329125,0.303532,0.277971,0.262828,0.277504,0.3217,0.351101,0.375913,0.4852,0.579422,0.638281,0.679721,0.682682,0.667536,0.671131,0.683482,0.777105,0.84024,0.805262,0.72172,0.715055,0.597811,0.488268,0.398994,0.333196,0.30561,0.279913,0.263276,0.275101,0.310039,0.335941,0.388195,0.491307,0.557464,0.610811,0.654107,0.662242,0.653783,0.672343,0.729199,0.816641,0.815562,0.802291,0.729358,0.72405,0.630474,0.522621,0.436821,0.371874,0.339807,0.321934,0.312503,0.327947,0.373363,0.408862,0.403085,0.398323,0.462859,0.524774,0.602214,0.63018,0.647002,0.675906,0.705199,0.797455,0.827478,0.822657,0.735186,0.72301,0.643487,0.547915,0.456588,0.383765,0.3622,0.329677,0.295763,0.324658,0.379258,0.418362,0.448091,0.541728,0.600739,0.637129,0.682481,0.694259,0.692748,0.615054,0.571309,0.750247,0.782621,0.789234,0.732912,0.731358,0.634267,0.532996,0.45863,0.40557,0.384775,0.380441,0.379202,0.396555,0.402548,0.39558,0.40219,0.377464,0.476643,0.576248,0.523983,0.4561,0.571544,0.578219,0.58878,0.671058,0.759553,0.734622,0.678246,0.694319,0.608105,0.516628,0.434569,0.379461,0.363852,0.360338,0.358898,0.360183,0.399552,0.424983,0.432361,0.514556,0.585354,0.601652,0.649149,0.655642,0.653136,0.683299,0.716226,0.813926,0.885715,0.852536,0.773547,0.756721,0.66404,0.557318,0.46954,0.406967,0.382847,0.366733,0.339989,0.333158,0.361842,0.385913,0.439107,0.558053,0.636532,0.673641,0.694434,0.712341,0.690502,0.709532,0.749548,0.852755,0.913254,0.913348,0.81274,0.76807,0.672318,0.560855,0.466909,0.407744,0.388421,0.37799,0.369207,0.376442,0.406953,0.418227,0.468569,0.563218,0.635419,0.670595,0.690226,0.711623,0.727523,0.74516,0.792297,0.886015,0.93186,0.92569,0.836172,0.799998,0.715095,0.619848,0.530042,0.439447,0.40164,0.386011,0.375194,0.390753,0.438521,0.477957,0.554289,0.636142,0.650418,0.692432,0.73298,0.732813,0.725724,0.759988,0.770379,0.82879,0.874074,0.847174,0.765994,0.735872,0.626898,0.514499,0.432337,0.377406,0.357806,0.346388,0.341868,0.359037,0.416153,0.472558,0.521802,0.603211,0.661276,0.676293,0.702907,0.764017,0.707545,0.617955,0.780031,0.864694,0.887475,0.866164,0.799778,0.804913,0.747082,0.656186,0.56368,0.499513,0.460594,0.408153,0.365509,0.371835,0.416008,0.437845,0.480557,0.595713,0.679676,0.718015,0.767647,0.671464,0.454969,0.368477,0.388214,0.474461,0.564597,0.639904,0.584769,0.601994,0.552151,0.467911,0.393813,0.348619,0.329381,0.306883,0.294461,0.311328,0.360979,0.400944,0.430635,0.480738,0.574757,0.639418,0.699467,0.728628,0.72909,0.76254,0.687929,0.560079,0.551545,0.572051,0.558075,0.586053,0.520949,0.440001,0.375372,0.331361,0.32631,0.323539,0.318097,0.334314,0.372819,0.400741,0.444117,0.528062,0.629417,0.693029,0.734657,0.746425,0.559213,0.413681,0.46292,0.654335,0.644608,0.576298,0.546696,0.602281,0.555397,0.476364,0.402401,0.344608,0.328072,0.318052,0.310718,0.331727,0.386462,0.427741,0.485215,0.605463,0.671626,0.723356,0.79352,0.803118,0.811675,0.833456,0.863658,0.948032,0.927271,0.796118,0.694379,0.772098,0.738495,0.659663,0.572841,0.497861,0.458209,0.426674,0.388645,0.387155,0.431839,0.468324,0.523421,0.631717,0.713135,0.743091,0.780027,0.803719,0.820915,0.824941,0.870256,0.967037,1.0,0.99937,0.94162,0.919885,0.819154,0.707811,0.608508,0.527551,0.487174,0.452396,0.433251,0.439692,0.476734,0.50221,0.552371,0.651635,0.719614,0.764865,0.806831,0.816659,0.826862,0.850025,0.893085,0.963974,0.981716,0.937448,0.779929,0.656756,0.594577,0.518616,0.445949,0.396685,0.391711,0.394502,0.388339,0.37864,0.405423,0.432356,0.462785,0.570365,0.64684,0.689147,0.752521,0.783161,0.64654,0.480782,0.486002,0.690735,0.726864,0.743075,0.70321,0.692091,0.616972,0.504513,0.412595,0.37483,0.359001,0.349236,0.328719,0.333572,0.376157,0.400472,0.445042,0.591379,0.666249,0.670199,0.624651,0.60382,0.670689,0.645888,0.683941,0.708131,0.676405,0.672641,0.646873,0.681982,0.619774,0.519286,0.440708,0.391964,0.386508,0.38642,0.381689,0.385794,0.42102,0.446325,0.489009,0.453335,0.363066,0.378603,0.50792,0.572467,0.640934,0.682213,0.713436,0.795064,0.857723,0.846634,0.757999,0.740843,0.649164,0.532127,0.445294,0.3792,0.353658,0.327099,0.297954,0.3065,0.351472,0.395265,0.444365,0.51288,0.588018,0.618993,0.661235,0.661709,0.656334,0.694059,0.738435,0.838215,0.917279,0.896875,0.80932,0.764748,0.674756,0.577734,0.493356,0.438743,0.40206,0.365372,0.346908,0.355557,0.399268,0.443785,0.527962,0.632441,0.678122,0.708781,0.737014,0.736649,0.734793,0.762336,0.818292,0.923972,0.955574,0.900953,0.795034,0.782749,0.705207,0.613434,0.522108,0.456726,0.42758,0.396715,0.387844,0.382472,0.405343,0.437199,0.505902,0.597731,0.656622,0.700426,0.755942,0.765954,0.759029,0.7876,0.816422,0.871296,0.927246,0.931082,0.85322,0.827564,0.73407,0.626602,0.537062,0.462506,0.422882,0.400144,0.379067,0.385466,0.431461,0.453735,0.48007,0.645911,0.723618,0.742058,0.780326,0.715117,0.552015,0.555987,0.485898,0.51658,0.590741,0.553805,0.5663,0.587516,0.523733,0.44367,0.376026,0.32516,0.315653,0.293972,0.27199,0.28721,0.333069,0.368129,0.443624,0.543998,0.624624,0.657072,0.70346,0.559776,0.42525,0.411274,0.523159,0.646246,0.691167,0.712264,0.667348,0.637706,0.557659,0.449765,0.353146,0.300292,0.29439,0.288136,0.277981,0.293875,0.331653,0.368169,0.417603,0.527046,0.599146,0.635923,0.695595,0.70588,0.519287,0.3668,0.426939,0.684663,0.753295,0.757676,0.72411,0.695276,0.579419,0.47962,0.395248,0.333945,0.318931,0.294684,0.26945,0.276716,0.310804,0.336715,0.385986,0.476946,0.559013,0.600375,0.651261,0.681459,0.684377,0.727036,0.779735,0.766654,0.743104,0.640277,0.567145,0.612422,0.539679,0.447034,0.369745,0.312451,0.29361,0.283113,0.265864,0.28861,0.331322,0.351788,0.409376,0.486696,0.567165,0.443868,0.420579,0.578638,0.554668,0.565022,0.622788,0.781716,0.909143,0.928387,0.774894,0.7006,0.646723,0.558177,0.477564,0.412742,0.377567,0.345782,0.328983,0.332288,0.368282,0.404356,0.492666,0.614215,0.656846,0.685198,0.710893,0.727506,0.777153,0.824682,0.838077,0.92314,0.886185,0.676156,0.564941,0.61691,0.580864,0.513947,0.447018,0.383531,0.359493,0.347082,0.331343,0.33184,0.366091,0.407881,0.513716,0.649118,0.685479,0.725846,0.782545,0.803823,0.801829,0.736992,0.570422,0.547618,0.704946,0.883789,0.815453,0.792204,0.707735,0.603794,0.512211,0.433977,0.399838,0.388951,0.36509,0.372986,0.419831,0.463408,0.510909,0.633977,0.677195,0.733791,0.769004,0.778103,0.782754,0.810486,0.836583,0.911416,0.964133,0.952644,0.869003,0.824488,0.740806,0.633761,0.53381,0.459037,0.420009,0.400716,0.397258,0.423958,0.478427,0.539239,0.6015,0.68638,0.71826,0.729605,0.765641,0.795485,0.787493,0.791112,0.838935,0.929012,0.95959,0.94453,0.866643,0.820308,0.726057,0.626095,0.560646,0.515439,0.496642,0.472459,0.450088,0.464172,0.506384,0.550563,0.606379,0.694998,0.705535,0.724471,0.737848,0.747934,0.745679,0.76677,0.789478,0.858226,0.895059,0.901425,0.827108,0.806782,0.73386,0.646863,0.504975,0.431747,0.436772,0.429513,0.398169,0.405506,0.454071,0.494509,0.532003,0.55883,0.587,0.619265,0.671896,0.569644,0.507039,0.640392,0.694765,0.781973,0.834531,0.825894,0.761743,0.750249,0.682312,0.584686,0.46456,0.390552,0.391299,0.386623,0.367249,0.360432,0.400972,0.447256,0.4946,0.468832,0.432553,0.38426,0.296887,0.311972,0.418691,0.553882,0.561676,0.65965,0.708685,0.702575,0.670045,0.701234,0.642538,0.518435,0.421028,0.379916,0.365839,0.346014,0.349038,0.386229,0.399126,0.421781,0.472019,0.549761,0.626439,0.614001,0.645264,0.664819,0.712395,0.732492,0.732579,0.778084,0.81,0.805011,0.7548,0.764255,0.704757,0.616983,0.537111,0.468126,0.440502,0.415018,0.395807,0.411094,0.459384,0.499382,0.507297,0.607915,0.632342,0.659243,0.729801,0.71018,0.718285,0.725569,0.74767,0.837822,0.869684,0.864657,0.792216,0.768969,0.695585,0.610766,0.534656,0.465291,0.436702,0.418718,0.38518,0.390149,0.438339,0.487898,0.561748,0.658452,0.677557,0.679421,0.70706,0.71979,0.721566,0.718439,0.757058,0.850828,0.894202,0.902661,0.824816,0.789144,0.697138,0.605946,0.529896,0.476837,0.447586,0.412746,0.388844,0.409049,0.446407,0.483217,0.542696,0.634956,0.642694,0.655133,0.721639,0.734462,0.74954,0.745407,0.76892,0.846029,0.894623,0.88303,0.792299,0.765211,0.672182,0.576654,0.493015,0.437646,0.417914,0.401157,0.393292,0.411267,0.446068,0.477035,0.515853,0.584855,0.614619,0.669715,0.730731,0.738466,0.728517,0.743992,0.776347,0.857283,0.892548,0.868982,0.789888,0.770215,0.683569,0.594378,0.510647,0.452936,0.424309,0.378389,0.371899,0.41217,0.461753,0.482455,0.476974,0.521196,0.63297,0.684825,0.714118,0.745679,0.739815,0.730418,0.771006,0.850251,0.884399,0.849932,0.778095,0.788593,0.698769,0.59574,0.524168,0.434765,0.384279,0.349234,0.342656,0.371936,0.400187,0.442711,0.478913,0.558569,0.640338,0.693806,0.741746,0.758147,0.68731,0.493039,0.442883,0.632849,0.74344,0.744223,0.614947,0.602534,0.545514,0.460696,0.401817,0.345553,0.315581,0.30384,0.295673,0.302978,0.343405,0.396084,0.42885,0.551396,0.626882,0.647905,0.701754,0.732241,0.746402,0.790617,0.618959,0.489793,0.583972,0.708018,0.568705,0.543636,0.504628,0.431521,0.364958,0.31492,0.301518,0.295959,0.294802,0.316465,0.35477,0.396884,0.451863,0.562578,0.621419,0.664156,0.717596,0.623643,0.579024,0.680212,0.592486,0.466768,0.493026,0.56481,0.600426,0.647182,0.580466,0.495428,0.4112,0.352244,0.327366,0.305454,0.294646,0.309431,0.347117,0.38783,0.439365,0.567087,0.637771,0.667624,0.719927,0.737413,0.751419,0.769507,0.799602,0.854244,0.861061,0.847859,0.76796,0.762013,0.660879,0.548051,0.469268,0.408039,0.3737,0.355708,0.349289,0.364485,0.411177,0.448697,0.495593,0.624133,0.652604,0.689274,0.720703,0.741339,0.764241,0.775408,0.801147,0.885457,0.922399,0.882551,0.807353,0.805422,0.702425,0.613057,0.533799,0.457007,0.425658,0.408791,0.399441,0.417663,0.466877,0.51231,0.490413,0.538778,0.667586,0.683956,0.715226,0.741608,0.748873,0.754746,0.782674,0.818371,0.878186,0.898791,0.811898,0.783491,0.694464,0.598125,0.468443,0.399753,0.395017,0.366088,0.348333,0.369869,0.414186,0.45966,0.510131,0.58525,0.628046,0.626235,0.667601,0.710397,0.71358,0.72105,0.769679,0.832575,0.89745,0.88551,0.80614,0.793195,0.699863,0.596997,0.50994,0.442163,0.409736,0.389236,0.377722,0.381801,0.43233,0.482101,0.503307,0.533582,0.567993,0.618165,0.6631,0.675183,0.683682,0.698782,0.735585,0.82952,0.90998,0.880916,0.785427,0.782722,0.697959,0.606366,0.515915,0.4505,0.426088,0.40347,0.391359,0.396046,0.432466,0.488483,0.540774,0.63054,0.663101,0.699187,0.75465,0.752101,0.771382,0.795439,0.803262,0.882724,0.918311,0.922385,0.838568,0.799501,0.701519,0.577384,0.467808,0.403812,0.371476,0.354796,0.340105,0.347466,0.391881,0.449742,0.466929,0.556824,0.595149,0.632553,0.714669,0.545298,0.376794,0.401827,0.561782,0.727834,0.783222,0.791251,0.660913,0.61918,0.541448,0.457816,0.384154,0.329816,0.313845,0.295855,0.290374,0.305193,0.341864,0.389969,0.40401,0.513979,0.595549,0.626101,0.688229,0.697845,0.512862,0.329892,0.317546,0.39129,0.457395,0.495016,0.497431,0.530184,0.463852,0.378333,0.30207,0.248435,0.232601,0.22628,0.221892,0.239607,0.280469,0.325893,0.337164,0.44929,0.548853,0.605679,0.650582,0.670878,0.685572,0.708303,0.74102,0.827511,0.867541,0.858905,0.78933,0.772513,0.691346,0.603351,0.464681,0.375326,0.385568,0.372283,0.346751,0.355294,0.400672,0.450297,0.438099,0.488656,0.452193,0.462952,0.617654,0.65452,0.672484,0.677946,0.72055,0.809959,0.852454,0.859979,0.798248,0.77231,0.685248,0.582649,0.490801,0.434085,0.390721,0.35041,0.33444,0.340407,0.369545,0.410501,0.417375,0.430552,0.487873,0.552493,0.644596,0.685617,0.691741,0.716298,0.68166,0.657508,0.734993,0.780319,0.734918,0.75441,0.685681,0.602333,0.481354,0.366588,0.323985,0.30861,0.30581,0.326676,0.373622,0.421829,0.42213,0.466263,0.519314,0.553411,0.608416,0.624043,0.617827,0.605282,0.630882,0.702908,0.757044,0.774178,0.726401,0.727639,0.64074,0.548169,0.469717,0.418214,0.40606,0.397404,0.3784,0.387841,0.407606,0.434463,0.450101,0.513159,0.620601,0.66599,0.665908,0.668229,0.685763,0.725696,0.765156,0.834614,0.842189,0.81983,0.745263,0.739843,0.665525,0.566686,0.477599,0.432607,0.412129,0.392592,0.386685,0.404793,0.453037,0.487513,0.499912,0.569897,0.587494,0.602613,0.658211,0.710009,0.724428,0.742749,0.766263,0.820634,0.863127,0.875024,0.803233,0.774657,0.688603,0.597431,0.518798,0.465327,0.451128,0.429927,0.413755,0.410281,0.425954,0.467624,0.499403,0.590885,0.616993,0.635127,0.694295,0.727153,0.713393,0.723544,0.762403,0.845497,0.886167,0.862067,0.786338,0.788518,0.719266,0.62824,0.53761,0.468711,0.45263,0.438735,0.4155,0.423284,0.46748,0.515638,0.527196,0.615062,0.652377,0.671467,0.719224,0.740278,0.753654,0.777927,0.800377,0.871378,0.898988,0.883458,0.822855,0.805496,0.728158,0.625134,0.539607,0.477822,0.456916,0.446861,0.43638,0.452541,0.500492,0.553324,0.577327,0.617659,0.627471,0.660551,0.70469,0.719415,0.744746,0.746613,0.696163,0.568483,0.525545,0.567058,0.603207,0.627718,0.56494,0.493776,0.438346,0.396375,0.362152,0.336527,0.329821,0.349594,0.395699,0.444342,0.459505,0.524323,0.559222,0.590961,0.676309,0.71291,0.705632,0.720705,0.778928,0.857588,0.839538,0.776742,0.711211,0.691831,0.596543,0.503213,0.426165,0.367519,0.347604,0.334766,0.324809,0.331145,0.379597,0.43051,0.418634,0.428391,0.531165,0.611435,0.672293,0.700847,0.709159,0.731385,0.761303,0.849431,0.915964,0.902175,0.82261,0.796865,0.725495,0.638122,0.562058,0.506375,0.488333,0.477892,0.460027,0.466671,0.501171,0.541451,0.558596,0.608347,0.664251,0.696047,0.747715,0.76857,0.772546,0.786271,0.822484,0.896466,0.931945,0.929078,0.846654,0.808235,0.731468,0.643372,0.567169,0.513559,0.486786,0.470038,0.456922,0.459953,0.503216,0.557383,0.589246,0.648813,0.668015,0.688337,0.738731,0.766083,0.753479,0.766448,0.789587,0.854858,0.899315,0.89597,0.840095,0.818052,0.741848,0.647566,0.561961,0.504754,0.474261,0.450205,0.436216,0.446008,0.484712,0.541376,0.567539,0.648245,0.662485,0.696024,0.75067,0.771558,0.776595,0.779864,0.825381,0.908646,0.921007,0.883776,0.811721,0.813423,0.73204,0.644049,0.565759,0.50434,0.486254,0.474722,0.46671,0.475203,0.507455,0.554988,0.576091,0.64911,0.675638,0.717464,0.769654,0.784784,0.796585,0.806572,0.826195,0.906022,0.941917,0.936787,0.843723,0.822254,0.743789,0.660022,0.587398,0.534689,0.520568,0.494568,0.471802,0.488191,0.520342,0.551752,0.565171,0.630216,0.678992,0.704199,0.743709,0.792926,0.8222,0.84756,0.873869,0.830431,0.740435,0.848444,0.844657,0.830912,0.749942,0.64482,0.541808,0.462791,0.438145,0.396867,0.363644,0.376484,0.422314,0.47677,0.495797,0.550365,0.610481,0.656095,0.722083,0.750802,0.614173,0.466442,0.599866,0.783704,0.757496,0.66102,0.633065,0.631898,0.554459,0.460051,0.381502,0.318057,0.293863,0.284264,0.279071,0.298264,0.346953,0.396432,0.394667,0.459362,0.564203,0.622683,0.67073,0.726073,0.732222,0.744435,0.654903,0.647548,0.791815,0.78245,0.754701,0.760502,0.689927,0.604874,0.517573,0.435071,0.394054,0.367669,0.346672,0.344831,0.37823,0.43439,0.420658,0.52004,0.580368,0.640524,0.717316,0.737908,0.798503,0.872533,0.90763,0.980962,0.994236,0.974409,0.905382,0.841505,0.746046,0.660392,0.572815,0.480352,0.438057,0.429644,0.440096,0.439894,0.470414,0.535769,0.520569,0.529236,0.440872,0.369227,0.389513,0.440078,0.543826,0.599512,0.61216,0.717595,0.809793,0.838308,0.777648,0.742506,0.655434,0.532361,0.432377,0.378862,0.365923,0.351203,0.342148,0.35861,0.405555,0.462932,0.435476,0.472988,0.570221,0.525863,0.45233,0.420896,0.492829,0.692539,0.559412,0.467087,0.4974,0.536581,0.53815,0.562771,0.508069,0.423874,0.34535,0.293478,0.275307,0.264023,0.256444,0.276754,0.328297,0.380478,0.326249,0.33116,0.321134,0.310099,0.339389,0.395721,0.482058,0.548287,0.620887,0.694855,0.71452,0.73631,0.676298,0.641578,0.569873,0.483413,0.356038,0.264442,0.254702,0.245447,0.233708,0.247275,0.29107,0.350758,0.348947,0.417276,0.486261,0.577645,0.654099,0.713563,0.720968,0.734759,0.763521,0.84134,0.854795,0.836238,0.782631,0.751907,0.672703,0.586741,0.508917,0.431344,0.388973,0.363835,0.352356,0.364682,0.40896,0.457039,0.452202,0.490027,0.509758,0.565077,0.661322,0.679889,0.709069,0.712563,0.760962,0.859329,0.911069,0.879711,0.808637,0.77619,0.694237,0.594,0.506572,0.450808,0.437356,0.389321,0.348346,0.349838,0.38527,0.442083,0.425509,0.470034,0.549805,0.636017,0.720265,0.746819,0.757096,0.76603,0.791967,0.819871,0.84686,0.821599,0.748374,0.730188,0.66198,0.575697,0.490235,0.43054,0.401924,0.383417,0.375158,0.380664,0.409368,0.456189,0.435004,0.531412,0.622242,0.672596,0.711196,0.745668,0.741029,0.761342,0.799514,0.85626,0.882449,0.861071,0.797202,0.762135,0.678908,0.595889,0.525845,0.473933,0.448653,0.42154,0.401576,0.412987,0.462095,0.529045,0.536861,0.608048,0.645666,0.706594,0.746767,0.762021,0.756936,0.781039,0.820348,0.895308,0.907709,0.86616,0.805213,0.787347,0.709189,0.608544,0.514922,0.449752,0.407716,0.379949,0.371838,0.382048,0.431703,0.498871,0.48892,0.581642,0.634068,0.693737,0.756181,0.783966,0.764095,0.762327,0.779995,0.69504,0.663495,0.760788,0.698973,0.667142,0.586627,0.499264,0.427186,0.368263,0.347853,0.31568,0.287936,0.30013,0.361861,0.425578,0.422213,0.494868,0.512525,0.598598,0.718068,0.739158,0.736514,0.762799,0.78549,0.851623,0.861964,0.848983,0.815503,0.783914,0.70083,0.603522,0.51734,0.451303,0.428493,0.414643,0.402962,0.39735,0.416288,0.473884,0.474489,0.550745,0.616092,0.668411,0.711575,0.77648,0.70619,0.643378,0.818009,0.864946,0.825379,0.808833,0.777672,0.762385,0.700686,0.613565,0.52539,0.449463,0.415029,0.389052,0.376319,0.382175,0.424835,0.495703,0.500514,0.56054,0.589576,0.444319,0.339022,0.407921,0.597027,0.649016,0.52703,0.538853,0.743613,0.766307,0.734558,0.729486,0.632589,0.50326,0.415891,0.363634,0.34447,0.328464,0.322034,0.341617,0.38995,0.45005,0.440523,0.512674,0.610477,0.663582,0.707063,0.725157,0.725605,0.743437,0.772398,0.847532,0.901333,0.87833,0.815939,0.765968,0.687312,0.593495,0.499753,0.434319,0.429943,0.418894,0.393835,0.396871,0.435403,0.484483,0.455119,0.531753,0.637525,0.659532,0.693001,0.720855,0.728625,0.750227,0.771483,0.844917,0.839072,0.828496,0.802917,0.774696,0.691636,0.586435,0.491863,0.426911,0.408904,0.392463,0.37528,0.380667,0.411355,0.470906,0.478776,0.594177,0.653573,0.694109,0.751111,0.77527,0.717536,0.617291,0.532316,0.592264,0.771549,0.786571,0.737525,0.721388,0.643509,0.544431,0.456971,0.395894,0.380754,0.36212,0.336626,0.343294,0.376468,0.417923,0.405181,0.51252,0.612908,0.698284,0.752918,0.780879,0.796633,0.674639,0.484176,0.588832,0.779629,0.75371,0.696758,0.678399,0.598573,0.518948,0.433151,0.372278,0.352347,0.326743,0.307589,0.314105,0.361349,0.414496,0.394058,0.491874,0.591835,0.674411,0.739041,0.763222,0.78654,0.811306,0.687978,0.560402,0.535243,0.535418,0.567215,0.577704,0.526347,0.440378,0.35874,0.301919,0.276711,0.255604,0.234482,0.244073,0.28871,0.348782,0.365133,0.50315,0.609425,0.667962,0.722287,0.756583,0.75622,0.771005,0.766488,0.81897,0.835359,0.804042,0.759709,0.718552,0.640978,0.546301,0.45957,0.3923,0.363979,0.350339,0.326792,0.345905,0.377937,0.426911,0.423691,0.46938,0.571846,0.654682,0.717468,0.735508,0.742608,0.767711,0.783775,0.855783,0.907395,0.873287,0.821133,0.775683,0.695042,0.597744,0.476725,0.397925,0.381138,0.370217,0.35013,0.34552,0.387076,0.445275,0.420607,0.45033,0.542603,0.667683,0.722184,0.724812,0.728204,0.752057,0.76634,0.835188,0.883718,0.837264,0.814121,0.787768,0.633499,0.491892,0.421696,0.369985,0.349506,0.334944,0.31215,0.313565,0.355815,0.415075,0.412608,0.502746,0.591199,0.691283,0.74827,0.766992,0.772895,0.7863,0.835974,0.912172,0.892577,0.834565,0.800171,0.774758,0.694973,0.595744,0.520114,0.464988,0.434051,0.410856,0.398806,0.381388,0.397277,0.469513,0.463872,0.533049,0.600509,0.677277,0.72843,0.753796,0.768212,0.782413,0.683521,0.700795,0.848964,0.800653,0.71833,0.689512,0.653291,0.573324,0.486432,0.436701,0.418692,0.394118,0.381475,0.396724,0.442657,0.503952,0.502036,0.531916,0.546731,0.703562,0.749349,0.754833,0.757426,0.788588,0.824801,0.871394,0.867002,0.840281,0.788797,0.749088,0.672114,0.582031,0.503954,0.435731,0.405225,0.372716,0.334202,0.333124,0.365491,0.425073,0.412888,0.508375,0.605117,0.668155,0.712339,0.752648,0.739389,0.689194,0.554346,0.48545,0.519196,0.559768,0.59205,0.586098,0.522937,0.433092,0.361095,0.311321,0.284394,0.272728,0.263124,0.266394,0.306287,0.367233,0.352618,0.356957,0.315574,0.384107,0.610024,0.681746,0.689613,0.686439,0.713802,0.772726,0.795118,0.765155,0.721016,0.685584,0.615181,0.527481,0.408906,0.32192,0.322947,0.324006,0.297277,0.297017,0.334972,0.390609,0.389026,0.435266,0.433014,0.43161,0.607387,0.66352,0.676371,0.70373,0.722718,0.777622,0.817004,0.775768,0.6924,0.6388,0.569811,0.493831,0.416272,0.355202,0.325075,0.306849,0.289112,0.289405,0.31929,0.378629,0.37157,0.439294,0.593257,0.662606,0.705515,0.722569,0.719184,0.746861,0.709579,0.693838,0.761597,0.706592,0.691319,0.674406,0.599169,0.500708,0.415669,0.360193,0.344072,0.334175,0.325185,0.33208,0.3735,0.432662,0.420438,0.502194,0.625721,0.685698,0.71028,0.750541,0.649442,0.527937,0.52244,0.602431,0.670921,0.626856,0.649867,0.628127,0.499702,0.38515,0.317811,0.27638,0.275276,0.28178,0.294564,0.3232,0.371744,0.435789,0.434999,0.450768,0.477597,0.55178,0.467561,0.324193,0.318681,0.317302,0.310995,0.424475,0.506933,0.49991,0.529115,0.502903,0.437728,0.372826,0.316,0.2705,0.259861,0.251334,0.222004,0.223798,0.284576,0.35327,0.355042,0.417768,0.481327,0.52118,0.560195,0.587952,0.472975,0.347656,0.352554,0.475999,0.611006,0.625628,0.650872,0.569691,0.441111,0.358282,0.288021,0.247831,0.236784,0.239271,0.259488,0.301345,0.366942,0.442979,0.458542,0.490912,0.379042,0.242303,0.230592,0.230837,0.223721,0.235404,0.260316,0.35506,0.445067,0.503005,0.525846,0.544398,0.505056,0.379465,0.253602,0.20393,0.197664,0.197859,0.205527,0.252344,0.349644,0.443932,0.447411,0.481147,0.556299,0.627504,0.68338,0.693599,0.690535,0.722152,0.746021,0.811606,0.811529,0.767564,0.735415,0.69869,0.637536,0.542998,0.453444,0.386811,0.361936,0.3411,0.333494,0.335589,0.358448,0.412202,0.38767,0.390304,0.522053,0.623692,0.683145,0.712896,0.629844,0.434752,0.42485,0.644472,0.68323,0.644338,0.632039,0.611236,0.532486,0.401695,0.307905,0.278134,0.279715,0.274152,0.273768,0.290387,0.326852,0.369846,0.348889,0.338279,0.412555,0.509171,0.589983,0.649616,0.660395,0.675884,0.683054,0.721656,0.759577,0.736047,0.717187,0.686963,0.601358,0.496718,0.405612,0.342511,0.324134,0.300448,0.274628,0.285563,0.330044,0.38016,0.373006,0.457999,0.562388,0.654438,0.699361,0.714095,0.731068,0.753218,0.782768,0.823365,0.834015,0.799283,0.766197,0.721103,0.646053,0.544347,0.431244,0.356672,0.326853,0.30642,0.288219,0.28595,0.32176,0.378103,0.360239,0.428335,0.55799,0.663632,0.75135,0.800796,0.819056,0.703564,0.62598,0.873882,0.877582,0.787413,0.762623,0.729631,0.648788,0.53883,0.442672,0.382211,0.352639,0.319574,0.29892,0.304773,0.341774,0.388221,0.380891,0.48239,
...